[Format]      =  4.0
[Frequency]   =  0
[Precision]   =  1e-008
[MinAngle]    =  30
[DoSmartMesh] =  1
[Depth]       =  4
[LengthUnits] =  centimeters
[ProblemType] =  planar
[Coordinates] =  cartesian
[ACSolver]    =  0
[PrevType]    =  0
[PrevSoln]    =  ""
[Comment]     =  "Add comments here."
[PointProps]   = 0
[BdryProps]   = 1
  <BeginBdry>
    <BdryName> = "Contorno"
    <BdryType> = 0
    <A_0> = 0
    <A_1> = 0
    <A_2> = 0
    <Phi> = 0
    <c0> = 0
    <c0i> = 0
    <c1> = 0
    <c1i> = 0
    <Mu_ssd> = 0
    <Sigma_ssd> = 0
    <innerangle> = 0
    <outerangle> = 0
  <EndBdry>
[BlockProps]  = 3
  <BeginBlock>
    <BlockName> = "Air"
    <Mu_x> = 1
    <Mu_y> = 1
    <H_c> = 0
    <H_cAngle> = 0
    <J_re> = 0
    <J_im> = 0
    <Sigma> = 0
    <d_lam> = 0
    <Phi_h> = 0
    <Phi_hx> = 0
    <Phi_hy> = 0
    <LamType> = 0
    <LamFill> = 1
    <NStrands> = 0
    <WireD> = 0
    <BHPoints> = 0
  <EndBlock>
  <BeginBlock>
    <BlockName> = "16 AWG"
    <Mu_x> = 1
    <Mu_y> = 1
    <H_c> = 0
    <H_cAngle> = 0
    <J_re> = 0
    <J_im> = 0
    <Sigma> = 58
    <d_lam> = 0
    <Phi_h> = 0
    <Phi_hx> = 0
    <Phi_hy> = 0
    <LamType> = 3
    <LamFill> = 1
    <NStrands> = 1
    <WireD> = 1.2911827701741401
    <BHPoints> = 0
  <EndBlock>
  <BeginBlock>
    <BlockName> = "Material Magnético"
    <Mu_x> = 1
    <Mu_y> = 1
    <H_c> = 0
    <H_cAngle> = 0
    <J_re> = 0
    <J_im> = 0
    <Sigma> = 0
    <d_lam> = 0.5
    <Phi_h> = 0
    <Phi_hx> = 0
    <Phi_hy> = 0
    <LamType> = 0
    <LamFill> = 0.96999999999999997
    <NStrands> = 0
    <WireD> = 0
    <BHPoints> = 29
      0	0
      0.10000000000000001	0.0021304929999999998
      0.20000000000000001	0.0042553189999999996
      0.29999999999999999	0.0063745019999999998
      0.40000000000000002	0.008488064
      0.5	0.010596026
      0.59999999999999998	0.012698413
      0.69999999999999996	0.014795244000000001
      0.80000000000000004	0.016886544
      0.90000000000000002	0.018972332000000001
      1	0.021052632000000002
      1.1000000000000001	0.023127464
      1.2	0.02519685
      1.3	0.027260812999999998
      1.3999999999999999	0.029319372
      1.5	0.031372549
      1.6000000000000001	0.033420366
      1.7	0.035462842000000001
      1.8	0.037499999999999999
      1.8999999999999999	0.039531860000000002
      2	0.041558442000000001
      2.1000000000000001	0.043579766999999998
      2.2000000000000002	0.045595854999999998
      2.2999999999999998	0.047606727000000001
      2.3999999999999999	0.049612402999999999
      2.5	0.051612903000000002
      2.6000000000000001	0.053608246999999998
      2.7000000000000002	0.055598455999999997
      2.7999999999999998	0.057583547999999998
  <EndBlock>
[CircuitProps]  = 1
  <BeginCircuit>
    <CircuitName> = "bobina"
    <TotalAmps_re> = 6.3662000000000001
    <TotalAmps_im> = 0
    <CircuitType> = 1
  <EndCircuit>
[NumPoints] = 20
0	0	0	0
0	14	0	0
2	2	0	0
2	10	0	0
8	10	0	0
8	2	0	0
16	10	0	0
16	2	0	0
22	10	0	0
22	7.0499999999999998	0	0
22	6.9500000000000002	0	0
22	2	0	0
24	14	0	0
24	7.0499999999999998	0	0
24	6.9500000000000002	0	0
24	0	0	0
-15.4	25.800000000000001	0	0
-16.800000000000001	-15.300000000000001	0	0
39.399999999999999	-15.1	0	0
36.600000000000001	26.5	0	0
[NumSegments] = 22
6	8	-1	0	0	0
7	6	-1	0	0	0
7	11	-1	0	0	0
5	4	-1	0	0	0
3	4	-1	0	0	0
2	3	-1	0	0	0
2	5	-1	0	0	0
0	15	-1	0	0	0
0	1	-1	0	0	0
1	12	-1	0	0	0
9	8	-1	0	0	0
13	12	-1	0	0	0
9	13	-1	0	0	0
10	14	-1	0	0	0
10	11	-1	0	0	0
14	15	-1	0	0	0
4	6	-1	0	0	0
5	7	-1	0	0	0
16	19	-1	0	0	0
17	16	-1	0	0	0
17	18	-1	0	0	0
18	19	-1	0	0	0
[NumArcSegments] = 0
[NumHoles] = 0
[NumBlockLabels] = 4
12.4	12.4	3	-1	0	0	0	1	0
11.6	6.5	2	-1	1	0	0	100	0
5.2000000000000002	6.2999999999999998	1	-1	0	0	0	1	0
23.905999999999999	7.0099999999999998	1	-1	0	0	0	1	0
