[Format]      =  4.0
[Frequency]   =  0
[Precision]   =  1e-008
[MinAngle]    =  30
[DoSmartMesh] =  1
[Depth]       =  4
[LengthUnits] =  centimeters
[ProblemType] =  planar
[Coordinates] =  cartesian
[ACSolver]    =  0
[PrevType]    =  0
[PrevSoln]    =  ""
[Comment]     =  "Add comments here."
[PointProps]   = 0
[BdryProps]   = 1
  <BeginBdry>
    <BdryName> = "Frontera"
    <BdryType> = 0
    <A_0> = 0
    <A_1> = 0
    <A_2> = 0
    <Phi> = 0
    <c0> = 0
    <c0i> = 0
    <c1> = 0
    <c1i> = 0
    <Mu_ssd> = 0
    <Sigma_ssd> = 0
    <innerangle> = 0
    <outerangle> = 0
  <EndBdry>
[BlockProps]  = 3
  <BeginBlock>
    <BlockName> = "Air"
    <Mu_x> = 1
    <Mu_y> = 1
    <H_c> = 0
    <H_cAngle> = 0
    <J_re> = 0
    <J_im> = 0
    <Sigma> = 0
    <d_lam> = 0
    <Phi_h> = 0
    <Phi_hx> = 0
    <Phi_hy> = 0
    <LamType> = 0
    <LamFill> = 1
    <NStrands> = 0
    <WireD> = 0
    <BHPoints> = 0
  <EndBlock>
  <BeginBlock>
    <BlockName> = "16 AWG"
    <Mu_x> = 1
    <Mu_y> = 1
    <H_c> = 0
    <H_cAngle> = 0
    <J_re> = 0
    <J_im> = 0
    <Sigma> = 58
    <d_lam> = 0
    <Phi_h> = 0
    <Phi_hx> = 0
    <Phi_hy> = 0
    <LamType> = 3
    <LamFill> = 1
    <NStrands> = 1
    <WireD> = 1.2911827701741401
    <BHPoints> = 0
  <EndBlock>
  <BeginBlock>
    <BlockName> = "Magneto"
    <Mu_x> = 1
    <Mu_y> = 1
    <H_c> = 0
    <H_cAngle> = 0
    <J_re> = 0
    <J_im> = 0
    <Sigma> = 0
    <d_lam> = 0.5
    <Phi_h> = 0
    <Phi_hx> = 0
    <Phi_hy> = 0
    <LamType> = 0
    <LamFill> = 0.96999999999999997
    <NStrands> = 0
    <WireD> = 0
    <BHPoints> = 29
      0	0
      0.10000000000000001	0.0021299999999999999
      0.20000000000000001	0.0042550000000000001
      0.29999999999999999	0.0063749999999999996
      0.40000000000000002	0.0084880000000000008
      0.5	0.010596
      0.59999999999999998	0.012697999999999999
      0.69999999999999996	0.014795000000000001
      0.80000000000000004	0.016886999999999999
      0.90000000000000002	0.018971999999999999
      1	0.021052999999999999
      1.1000000000000001	0.023127000000000002
      1.2	0.025197000000000001
      1.3	0.027261000000000001
      1.3999999999999999	0.029319000000000001
      1.5	0.031372999999999998
      1.6000000000000001	0.033419999999999998
      1.7	0.035463000000000001
      1.8	0.037499999999999999
      1.8999999999999999	0.039531999999999998
      2	0.041557999999999998
      2.1000000000000001	0.043580000000000001
      2.2000000000000002	0.045595999999999998
      2.2999999999999998	0.047606999999999997
      2.3999999999999999	0.049612000000000003
      2.5	0.051612999999999999
      2.6000000000000001	0.053608000000000003
      2.7000000000000002	0.055598000000000002
      2.7999999999999998	0.057584000000000003
  <EndBlock>
[CircuitProps]  = 1
  <BeginCircuit>
    <CircuitName> = "Embobinado"
    <TotalAmps_re> = 6.5
    <TotalAmps_im> = 0
    <CircuitType> = 1
  <EndCircuit>
[NumPoints] = 20
0	0	0	0
0	14	0	0
2	2	0	0
2	10	0	0
8	10	0	0
8	2	0	0
16	10	0	0
16	2	0	0
22	10	0	0
22	7.0499999999999998	0	0
22	6.9500000000000002	0	0
22	2	0	0
24	14	0	0
24	7.0499999999999998	0	0
24	6.9500000000000002	0	0
24	0	0	0
-3.2999999999999998	17.899999999999999	0	0
-3.3999999999999999	-5	0	0
28.699999999999999	-5.0999999999999996	0	0
28.699999999999999	18	0	0
[NumSegments] = 22
6	8	-1	0	0	0
7	6	-1	0	0	0
7	11	-1	0	0	0
5	4	-1	0	0	0
3	4	-1	0	0	0
2	3	-1	0	0	0
2	5	-1	0	0	0
0	15	-1	0	0	0
0	1	-1	0	0	0
1	12	-1	0	0	0
9	8	-1	0	0	0
13	12	-1	0	0	0
9	13	-1	0	0	0
10	14	-1	0	0	0
10	11	-1	0	0	0
14	15	-1	0	0	0
4	6	-1	0	0	0
5	7	-1	0	0	0
16	17	-1	1	0	0
17	18	-1	1	0	0
19	18	-1	1	0	0
16	19	-1	1	0	0
[NumArcSegments] = 0
[NumHoles] = 0
[NumBlockLabels] = 4
12.5	5.7999999999999998	2	-1	1	0	0	1	0
4.5	6.2000000000000002	1	-1	0	0	0	1	0
8.0999999999999996	12.199999999999999	3	-1	0	0	0	1	0
22.943000000000001	6.9889999999999999	1	-1	0	0	0	1	0
